feeders/123Bus/ieee123_VLN.Txt

SYMMETRICAL COMPONENT VOLTAGES BY BUS (for 3-phase buses)

Bus       Mag:   V1 (kV)    p.u.     V2 (kV)   %V2/V1    V0 (kV)    %V0/V1

150          2.402          1  7.338E-006  0.0003055 6.106E-006 0.0002542
150r         2.492      1.037  1.025E-005  0.0004113 8.527E-006 0.0003422
149          2.492      1.037  1.025E-005  0.0004113 8.528E-006 0.0003422
1            2.473       1.03   0.006338     0.2563   0.01001    0.4048
2            2.486      1.035          0          0         0         0
3            2.466      1.027          0          0         0         0
7            2.459      1.024    0.01084     0.4406   0.01744     0.709
4            2.465      1.026          0          0         0         0
5            2.463      1.026          0          0         0         0
6            2.462      1.025          0          0         0         0
8            2.451       1.02    0.01376     0.5617   0.02218     0.905
12           2.479      1.032          0          0         0         0
9            2.421      1.008          0          0         0         0
13           2.438      1.015    0.01768     0.7252   0.02776     1.139
9r           2.421      1.008          0          0         0         0
14           2.417      1.006          0          0         0         0
34           2.432      1.012          0          0         0         0
18           2.421      1.008    0.01816       0.75   0.03534      1.46
11           2.416      1.006          0          0         0         0
10           2.416      1.006          0          0         0         0
15           2.431      1.012          0          0         0         0
16           2.428      1.011          0          0         0         0
17            2.43      1.012          0          0         0         0
19           2.381     0.9912          0          0         0         0
21            2.42      1.008    0.01842     0.7611   0.03639     1.504
20           2.379     0.9904          0          0         0         0
22           2.461      1.025          0          0         0         0
23           2.419      1.007    0.01884     0.7788   0.03774      1.56
24           2.407      1.002          0          0         0         0
25           2.418      1.007    0.01931     0.7987    0.0394     1.629
25r           2.41      1.003          0          0         0         0
26           2.409      1.003          0          0         0         0
28           2.418      1.007    0.01955     0.8084   0.04023     1.664
27           2.408      1.003          0          0         0         0
31           2.406      1.002          0          0         0         0
33           2.405      1.001          0          0         0         0
29           2.417      1.006    0.01971     0.8155   0.04078     1.687
30           2.417      1.006    0.01971     0.8154   0.04063     1.681
250          2.417      1.006    0.01971     0.8154   0.04063     1.681
32           2.405      1.001          0          0         0         0
35           2.416      1.006    0.01878     0.7772   0.03521     1.457
36           2.375     0.9888          0          0         0         0
40           2.413      1.005    0.01908     0.7908   0.03524      1.46
37           2.373     0.9881          0          0         0         0
38           2.455      1.022          0          0         0         0
39           2.454      1.022          0          0         0         0
41            2.41      1.003          0          0         0         0
42            2.41      1.004    0.01938     0.8041   0.03537     1.468
43           2.449       1.02          0          0         0         0
44           2.408      1.003    0.01967     0.8169   0.03557     1.477
45           2.366      0.985          0          0         0         0
47           2.406      1.002    0.01983     0.8244    0.0352     1.463
46           2.365     0.9846          0          0         0         0
48           2.405      1.001     0.0199     0.8273   0.03514     1.461
49           2.405      1.001    0.01991     0.8278   0.03477     1.446
50           2.405      1.001    0.02004     0.8333   0.03486      1.45
51           2.404      1.001    0.02013     0.8373   0.03515     1.462
151          2.404      1.001    0.02013     0.8373   0.03515     1.462
52           2.429      1.012    0.02077      0.855   0.03217     1.324
53           2.425       1.01    0.02216     0.9138    0.0339     1.398
54           2.423      1.009    0.02293     0.9465   0.03469     1.432
55           2.423      1.009    0.02295     0.9472   0.03478     1.436
57           2.416      1.006    0.02352     0.9735   0.03584     1.483
56           2.423      1.009    0.02285     0.9434   0.03456     1.426
58            2.46      1.024          0          0         0         0
60           2.402          1     0.0255      1.061   0.03964      1.65
59           2.459      1.024          0          0         0         0
61           2.402          1     0.0255      1.061   0.03964      1.65
62           2.399     0.9988    0.02518       1.05   0.03965     1.653
63           2.397      0.998     0.0251      1.047   0.03937     1.643
64           2.393     0.9965    0.02447      1.023   0.03833     1.602
65            2.39     0.9952    0.02411      1.009   0.03984     1.667
66           2.389     0.9948    0.02371     0.9924   0.04109      1.72
67           2.498       1.04     0.0148     0.5928    0.0295     1.181
68           2.497       1.04          0          0         0         0
72           2.497       1.04    0.01504     0.6024   0.02903     1.162
97           2.496      1.039     0.0151     0.6049   0.03006     1.204
69           2.493      1.038          0          0         0         0
70            2.49      1.037          0          0         0         0
71           2.488      1.036          0          0         0         0
73           2.478      1.032          0          0         0         0
76           2.497       1.04    0.01566     0.6272   0.02804     1.123
74           2.474       1.03          0          0         0         0
75           2.471      1.029          0          0         0         0
77             2.5      1.041    0.01528     0.6112   0.02811     1.125
86           2.496      1.039    0.01688     0.6762   0.02469    0.9892
78             2.5      1.041    0.01515     0.6059   0.02835     1.134
79             2.5      1.041    0.01528     0.6111   0.02868     1.147
80           2.504      1.043    0.01427     0.5697   0.02886     1.153
81           2.506      1.043    0.01388     0.5539   0.02946     1.176
82           2.508      1.044    0.01363     0.5434   0.02988     1.191
84           2.484      1.034          0          0         0         0
83           2.511      1.045    0.01325     0.5277      0.03     1.195
85           2.481      1.033          0          0         0         0
87           2.496      1.039    0.01738     0.6963   0.02329    0.9334
88           2.498       1.04          0          0         0         0
89           2.495      1.039    0.01734      0.695   0.02235    0.8958
90           2.499       1.04          0          0         0         0
91           2.495      1.039    0.01744     0.6991   0.02173    0.8707
92           2.491      1.037          0          0         0         0
93           2.495      1.039    0.01764     0.7072   0.02159    0.8656
94           2.494      1.038          0          0         0         0
95           2.495      1.039    0.01777     0.7122   0.02093     0.839
96           2.497      1.039          0          0         0         0
98           2.495      1.039    0.01515      0.607   0.03005     1.204
99           2.495      1.039    0.01493     0.5986   0.02934     1.176
100          2.494      1.039    0.01471     0.5897   0.02969      1.19
450          2.494      1.039    0.01471     0.5897   0.02969      1.19
197          2.496      1.039     0.0151     0.6049   0.03006     1.204
101          2.495      1.039    0.01535     0.6154   0.03064     1.228
102          2.477      1.031          0          0         0         0
105          2.494      1.038    0.01611      0.646   0.03071     1.232
103          2.473       1.03          0          0         0         0
104          2.469      1.028          0          0         0         0
106          2.504      1.043          0          0         0         0
108          2.493      1.038    0.01681     0.6742   0.03246     1.302
107          2.501      1.041          0          0         0         0
109          2.479      1.032          0          0         0         0
300          2.493      1.038    0.01681     0.6742   0.03246     1.302
110          2.475       1.03          0          0         0         0
111          2.473       1.03          0          0         0         0
112          2.473       1.03          0          0         0         0
113          2.468      1.028          0          0         0         0
114          2.467      1.027          0          0         0         0
135          2.421      1.008    0.01816       0.75   0.03534      1.46
152          2.438      1.015    0.01768     0.7252   0.02776     1.139
160r         2.502      1.042    0.01442     0.5766    0.0274     1.095
160          2.402          1     0.0255      1.061   0.03964      1.65
61s          2.402          1     0.0255      1.061   0.03964      1.65
300_open     2.404      1.001    0.02013     0.8373   0.03515     1.462
94_open      2.381     0.9913          0          0         0         0
610         0.2772          1   0.002942      1.061 9.804E-010 3.537E-007
